Version 4
SHEET 1 880 680
WIRE 224 -192 32 -192
WIRE 448 -192 224 -192
WIRE 448 -96 448 -192
WIRE 32 -80 32 -192
WIRE 224 -80 224 -192
WIRE 448 16 448 -16
WIRE 224 80 224 0
WIRE 224 112 224 80
WIRE 320 160 224 160
WIRE 32 192 32 0
WIRE 176 192 32 192
WIRE 320 208 320 160
WIRE 320 208 224 208
WIRE 32 304 32 192
WIRE 32 464 32 384
WIRE 224 464 224 208
FLAG 448 16 0
FLAG 224 464 0
FLAG 32 464 0
FLAG 224 80 Vd
SYMBOL nmos4 176 112 R0
SYMATTR InstName M1
SYMATTR Value2 l=1u w=250u
SYMBOL voltage 448 -112 R0
WINDOW 123 0 0 Left 0
WINDOW 39 0 0 Left 0
SYMATTR InstName V1
SYMATTR Value 1.8
SYMBOL res 208 -96 R0
SYMATTR InstName R1
SYMATTR Value 0.5k
SYMBOL res 16 -96 R0
SYMATTR InstName R2
SYMATTR Value 100k
SYMBOL res 16 288 R0
SYMATTR InstName R3
SYMATTR Value 100k
TEXT -112 512 Left 2 !.model nmos nmos(kp = 200u, vto = 0.3, cgso = 100n, cgdo = 100n)
TEXT -112 536 Left 2 !.op
