Version 4
SHEET 1 880 680
WIRE 432 -112 240 -112
WIRE 240 -48 240 -112
WIRE 432 -16 432 -112
WIRE 240 80 240 32
WIRE 432 80 432 64
WIRE 240 96 240 80
WIRE 336 144 240 144
WIRE 192 176 48 176
WIRE 336 192 336 144
WIRE 336 192 240 192
WIRE 48 320 48 176
WIRE 48 416 48 400
WIRE 240 416 240 192
FLAG 432 80 0
FLAG 48 416 0
FLAG 240 416 0
FLAG 240 80 Vd
SYMBOL nmos4 192 96 R0
SYMATTR InstName M1
SYMATTR Value2 l=1u w=250u
SYMBOL voltage 432 -32 R0
WINDOW 123 0 0 Left 0
WINDOW 39 0 0 Left 0
SYMATTR InstName V1
SYMATTR Value 25
SYMBOL voltage 48 304 R0
WINDOW 123 0 0 Left 0
WINDOW 39 0 0 Left 0
SYMATTR InstName V2
SYMATTR Value 0
SYMBOL res 224 -64 R0
SYMATTR InstName R1
SYMATTR Value .5k
TEXT -136 480 Left 2 !.model nmos nmos(kp = 200u, vto = 0.4, cgso = 100n, cgdo = 100n)
TEXT -136 504 Left 2 !.dc V1 0 25 0.1 V2 0.6 1.8 0.3
