Version 4
SHEET 1 880 680
WIRE 480 -32 272 -32
WIRE 480 -16 480 -32
WIRE 272 32 272 -32
WIRE 336 32 272 32
WIRE 336 80 336 32
WIRE 336 80 272 80
WIRE 480 96 480 64
WIRE 224 112 176 112
WIRE 176 192 176 112
WIRE 176 192 64 192
WIRE 272 192 272 128
WIRE 384 192 272 192
WIRE 480 192 384 192
WIRE 272 208 272 192
WIRE 352 256 272 256
WIRE 480 272 480 192
WIRE 64 288 64 192
WIRE 176 288 176 192
WIRE 224 288 176 288
WIRE 352 304 352 256
WIRE 352 304 272 304
WIRE 64 416 64 368
WIRE 272 416 272 304
WIRE 480 416 480 336
FLAG 480 96 0
FLAG 64 416 0
FLAG 272 416 0
FLAG 480 416 0
FLAG 384 192 Vout
SYMBOL nmos4 224 208 R0
WINDOW 0 57 26 Left 2
WINDOW 3 56 67 Left 2
SYMATTR InstName M1
SYMATTR Value2 l=0.5u w=2u
SYMBOL pmos4 224 32 R0
SYMATTR InstName M2
SYMATTR Value2 l=0.5u w=4u
SYMBOL voltage 64 272 R0
WINDOW 3 -327 -13 Left 2
WINDOW 123 0 0 Left 0
WINDOW 39 0 0 Left 0
SYMATTR Value SINE(2.9267752 10m 10k)
SYMATTR InstName V1
SYMBOL voltage 480 -32 R0
WINDOW 123 0 0 Left 0
WINDOW 39 0 0 Left 0
SYMATTR InstName V2
SYMATTR Value 5
SYMBOL cap 464 272 R0
SYMATTR InstName C1
SYMATTR Value 50f
TEXT 232 472 Left 2 !.tran 0 1m 0 0.01m
