Version 4
SHEET 1 880 680
WIRE 256 -112 0 -112
WIRE 576 -112 256 -112
WIRE 576 -80 576 -112
WIRE 0 -32 0 -112
WIRE 256 -16 256 -112
WIRE 576 32 576 0
WIRE 256 80 256 64
WIRE 256 112 256 80
WIRE 384 112 256 112
WIRE 528 112 448 112
WIRE 576 112 528 112
WIRE 576 128 576 112
WIRE 256 144 256 112
WIRE -160 192 -256 192
WIRE 0 192 0 48
WIRE 0 192 -96 192
WIRE 160 192 0 192
WIRE 192 192 160 192
WIRE 576 224 576 208
WIRE 256 272 256 240
WIRE 256 304 256 272
WIRE 368 304 256 304
WIRE 576 304 432 304
WIRE 576 320 576 304
WIRE 0 336 0 192
WIRE 256 336 256 304
WIRE -256 464 -256 192
WIRE 0 464 0 416
WIRE 256 464 256 416
WIRE 576 464 576 400
FLAG 576 32 0
FLAG 256 464 0
FLAG 0 464 0
FLAG 576 224 0
FLAG -256 464 0
FLAG 528 112 Vout
FLAG 576 464 0
FLAG 160 192 Vb
FLAG 256 80 Vc
FLAG 256 272 Ve
SYMBOL res 240 -32 R0
SYMATTR InstName R1
SYMATTR Value 10k
SYMBOL res 240 320 R0
SYMATTR InstName R2
SYMATTR Value 1k
SYMBOL res -16 -48 R0
SYMATTR InstName R3
SYMATTR Value 91.5k
SYMBOL res -16 320 R0
SYMATTR InstName R4
SYMATTR Value 8.5k
SYMBOL voltage 576 -96 R0
WINDOW 123 0 0 Left 0
WINDOW 39 0 0 Left 0
SYMATTR InstName V1
SYMATTR Value 20
SYMBOL npn 192 144 R0
SYMATTR InstName Q1
SYMATTR Value 2N2222
SYMBOL res 560 112 R0
SYMATTR InstName R5
SYMATTR Value 50k
SYMBOL cap 448 96 R90
WINDOW 0 0 32 VBottom 2
WINDOW 3 32 32 VTop 2
SYMATTR InstName C1
SYMATTR Value 10µ
SYMBOL cap -96 176 R90
WINDOW 0 0 32 VBottom 2
WINDOW 3 32 32 VTop 2
SYMATTR InstName C2
SYMATTR Value 10µ
SYMBOL voltage 576 304 R0
WINDOW 123 24 124 Left 2
WINDOW 39 0 0 Left 0
SYMATTR InstName V2
SYMATTR Value SINE(0 10m 1k)
SYMATTR Value2 AC 1
SYMBOL cap 432 288 R90
WINDOW 0 0 32 VBottom 2
WINDOW 3 32 32 VTop 2
SYMATTR InstName C3
SYMATTR Value 10µ
TEXT 88 504 Left 2 !;op
TEXT 64 528 Left 2 !;tran 10m
TEXT -8 552 Left 2 !.ac dec 1000 1 100MEG
